# Generated by Catalysthub (Web: http://www.catalysthub.net/)
data_CdCl2 
_symmetry_space_group_name_H-M          'P 1'
_cell_length_a      6.246144 
_cell_length_b      6.246144 
_cell_length_c      6.246144 
_cell_angle_alpha     36.093056 
_cell_angle_beta     36.093058 
_cell_angle_gamma     36.093061 
loop_ 
  _space_group_symop_operation_xyz 
  'x, y, z' 
loop_ 
  _atom_site_fract_x
  _atom_site_fract_y
  _atom_site_fract_z
  _atom_site_type_symbol
    0.000000     0.000000     0.000000 Cd
    0.250052     0.250052     0.250052 Cl
    0.749948     0.749949     0.749949 Cl
